14bus_Power_elem_kVA.txt

CIRCUIT ELEMENT POWER FLOW

(Power Flow into element from indicated Bus)

Power Delivery Elements

  Bus     Phase     kW     +j   kvar         kVA         PF

ELEMENT = "Vsource.SOURCE"
SOURCEBUS     1    -181567.1 +j -271958.6   326998.6       0.5553
SOURCEBUS     2    -181567.1 +j -271958.6   326998.6       0.5553
SOURCEBUS     3    -181567.1 +j -271958.6   326998.6       0.5553
   TERMINAL TOTAL .-544701.3 +j -815875.9   980995.9       0.5553
SOURCEBUS     0         0.0 +j      0.0        0.0       1.0000
SOURCEBUS     0         0.0 +j      0.0        0.0       1.0000
SOURCEBUS     0         0.0 +j      0.0        0.0       1.0000
   TERMINAL TOTAL .     0.0 +j      0.0        0.0       1.0000

ELEMENT = "Line.1"
2             1     13747.1 +j  13446.6    19230.0       0.7149
2             2     13747.1 +j  13446.6    19230.0       0.7149
2             3     13747.1 +j  13446.6    19230.0       0.7149
   TERMINAL TOTAL . 41241.2 +j  40339.9    57690.1       0.7149
5             1    -12313.0 +j  -9068.2    15291.9       0.8052
5             2    -12313.0 +j  -9068.2    15291.9       0.8052
5             3    -12313.0 +j  -9068.2    15291.9       0.8052
   TERMINAL TOTAL .-36939.0 +j -27204.7    45875.8       0.8052

ELEMENT = "Line.2"
7             1       141.3 +j   -587.2      604.0      -0.2339
7             2       141.3 +j   -587.2      604.0      -0.2339
7             3       141.3 +j   -587.2      604.0      -0.2339
   TERMINAL TOTAL .   423.8 +j  -1761.7     1812.0      -0.2339
9             1      -139.7 +j    593.1      609.3      -0.2292
9             2      -139.7 +j    593.1      609.3      -0.2292
9             3      -139.7 +j    593.1      609.3      -0.2292
   TERMINAL TOTAL .  -419.0 +j   1779.2     1827.8      -0.2292

ELEMENT = "Line.3"
SOURCEBUS     1    136445.2 +j 195232.1   238186.6       0.5728
SOURCEBUS     2    136445.2 +j 195232.1   238186.6       0.5728
SOURCEBUS     3    136445.2 +j 195232.1   238186.6       0.5728
   TERMINAL TOTAL .409335.6 +j 585696.2   714559.8       0.5728
2             1    -106856.4 +j -104894.3   149736.8       0.7136
2             2    -106856.4 +j -104894.3   149736.8       0.7136
2             3    -106856.4 +j -104894.3   149736.8       0.7136
   TERMINAL TOTAL .-320569.1 +j -314683.0   449210.4       0.7136

ELEMENT = "Line.5"
3             1    -17440.3 +j  -8998.0    19624.6       0.8887
3             2    -17440.3 +j  -8998.0    19624.6       0.8887
3             3    -17440.3 +j  -8998.0    19624.6       0.8887
   TERMINAL TOTAL .-52320.8 +j -26994.0    58873.9       0.8887
2             1     25725.3 +j  43903.4    50885.2       0.5056
2             2     25725.3 +j  43903.4    50885.2       0.5056
2             3     25725.3 +j  43903.4    50885.2       0.5056
   TERMINAL TOTAL . 77176.0 +j 131710.2   152655.6       0.5056

ELEMENT = "Line.6"
3             1     -8208.2 +j  -4845.6     9531.8       0.8611
3             2     -8208.2 +j  -4845.6     9531.8       0.8611
3             3     -8208.2 +j  -4845.6     9531.8       0.8611
   TERMINAL TOTAL .-24624.7 +j -14536.7    28595.3       0.8611
4             1     10995.4 +j  11959.4    16245.9       0.6768
4             2     10995.4 +j  11959.4    16245.9       0.6768
4             3     10995.4 +j  11959.4    16245.9       0.6768
   TERMINAL TOTAL . 32986.3 +j  35878.3    48737.6       0.6768

ELEMENT = "Line.7"
SOURCEBUS     1     45121.9 +j  76726.5    89010.9       0.5069
SOURCEBUS     2     45121.9 +j  76726.5    89010.9       0.5069
SOURCEBUS     3     45121.9 +j  76726.5    89010.9       0.5069
   TERMINAL TOTAL .135365.7 +j 230179.6   267032.8       0.5069
5             1    -33601.8 +j -29171.3    44497.7       0.7551
5             2    -33601.8 +j -29171.3    44497.7       0.7551
5             3    -33601.8 +j -29171.3    44497.7       0.7551
   TERMINAL TOTAL .-100805.3 +j -87513.8   133493.0       0.7551

ELEMENT = "Line.8"
5             1     33069.0 +j  29312.5    44190.3       0.7483
5             2     33069.0 +j  29312.5    44190.3       0.7483
5             3     33069.0 +j  29312.5    44190.3       0.7483
   TERMINAL TOTAL . 99207.0 +j  87937.6   132570.9       0.7483
4             1    -30261.7 +j -20457.5    36527.8       0.8285
4             2    -30261.7 +j -20457.5    36527.8       0.8285
4             3    -30261.7 +j -20457.5    36527.8       0.8285
   TERMINAL TOTAL .-90785.2 +j -61372.4   109583.4       0.8285

ELEMENT = "Line.9"
2             1     22265.8 +j  23192.1    32150.2       0.6926
2             2     22265.8 +j  23192.1    32150.2       0.6926
2             3     22265.8 +j  23192.1    32150.2       0.6926
   TERMINAL TOTAL . 66797.3 +j  69576.2    96450.7       0.6926
4             1    -18175.8 +j -10781.9    21133.1       0.8601
4             2    -18175.8 +j -10781.9    21133.1       0.8601
4             3    -18175.8 +j -10781.9    21133.1       0.8601
   TERMINAL TOTAL .-54527.3 +j -32345.7    63399.3       0.8601

ELEMENT = "Line.10"
6             1       543.0 +j    342.9      642.2       0.8455
6             2       543.0 +j    342.9      642.2       0.8455
6             3       543.0 +j    342.9      642.2       0.8455
   TERMINAL TOTAL .  1628.9 +j   1028.7     1926.5       0.8455
12            1      -537.2 +j   -330.9      630.9       0.8514
12            2      -537.2 +j   -330.9      630.9       0.8514
12            3      -537.2 +j   -330.9      630.9       0.8514
   TERMINAL TOTAL . -1611.5 +j   -992.6     1892.7       0.8514

ELEMENT = "Line.11"
12            1       243.2 +j    172.2      298.0       0.8161
12            2       243.2 +j    172.2      298.0       0.8161
12            3       243.2 +j    172.2      298.0       0.8161
   TERMINAL TOTAL .   729.7 +j    516.7      894.1       0.8161
13            1      -240.9 +j   -170.1      294.9       0.8168
13            2      -240.9 +j   -170.1      294.9       0.8168
13            3      -240.9 +j   -170.1      294.9       0.8168
   TERMINAL TOTAL .  -722.7 +j   -510.4      884.8       0.8168

ELEMENT = "Line.12"
6             1      1407.1 +j   1160.8     1824.1       0.7714
6             2      1407.1 +j   1160.8     1824.1       0.7714
6             3      1407.1 +j   1160.8     1824.1       0.7714
   TERMINAL TOTAL .  4221.2 +j   3482.5     5472.3       0.7714
13            1     -1381.9 +j  -1111.4     1773.4       0.7793
13            2     -1381.9 +j  -1111.4     1773.4       0.7793
13            3     -1381.9 +j  -1111.4     1773.4       0.7793
   TERMINAL TOTAL . -4145.7 +j  -3334.1     5320.1       0.7793

ELEMENT = "Line.13"
6             1      1416.9 +j   1520.5     2078.3       0.6817
6             2      1416.9 +j   1520.5     2078.3       0.6817
6             3      1416.9 +j   1520.5     2078.3       0.6817
   TERMINAL TOTAL .  4250.6 +j   4561.6     6235.0       0.6817
11            1     -1370.0 +j  -1422.4     1974.9       0.6937
11            2     -1370.0 +j  -1422.4     1974.9       0.6937
11            3     -1370.0 +j  -1422.4     1974.9       0.6937
   TERMINAL TOTAL . -4110.0 +j  -4267.3     5924.7       0.6937

ELEMENT = "Line.14"
11            1      1199.6 +j   1330.4     1791.4       0.6696
11            2      1199.6 +j   1330.4     1791.4       0.6696
11            3      1199.6 +j   1330.4     1791.4       0.6696
   TERMINAL TOTAL .  3598.7 +j   3991.3     5374.1       0.6696
10            1     -1166.2 +j  -1252.5     1711.4       0.6815
10            2     -1166.2 +j  -1252.5     1711.4       0.6815
10            3     -1166.2 +j  -1252.5     1711.4       0.6815
   TERMINAL TOTAL . -3498.7 +j  -3757.5     5134.2       0.6815

ELEMENT = "Line.15"
9             1      -740.0 +j  -1007.4     1250.0       0.5920
9             2      -740.0 +j  -1007.4     1250.0       0.5920
9             3      -740.0 +j  -1007.4     1250.0       0.5920
   TERMINAL TOTAL . -2220.1 +j  -3022.3     3750.1       0.5920
10            1       747.1 +j   1026.3     1269.4       0.5886
10            2       747.1 +j   1026.3     1269.4       0.5886
10            3       747.1 +j   1026.3     1269.4       0.5886
   TERMINAL TOTAL .  2241.4 +j   3078.8     3808.3       0.5886

ELEMENT = "Line.16"
9             1      -284.3 +j   -495.4      571.2       0.4978
9             2      -284.3 +j   -495.4      571.2       0.4978
9             3      -284.3 +j   -495.4      571.2       0.4978
   TERMINAL TOTAL .  -853.0 +j  -1486.3     1713.6       0.4978
14            1       290.3 +j    508.0      585.1       0.4961
14            2       290.3 +j    508.0      585.1       0.4961
14            3       290.3 +j    508.0      585.1       0.4961
   TERMINAL TOTAL .   870.8 +j   1524.0     1755.2       0.4961

ELEMENT = "Line.17"
14            1      -917.3 +j   -846.5     1248.2       0.7349
14            2      -917.3 +j   -846.5     1248.2       0.7349
14            3      -917.3 +j   -846.5     1248.2       0.7349
   TERMINAL TOTAL . -2751.9 +j  -2539.4     3744.6       0.7349
13            1       953.6 +j    920.3     1325.2       0.7196
13            2       953.6 +j    920.3     1325.2       0.7196
13            3       953.6 +j    920.3     1325.2       0.7196
   TERMINAL TOTAL .  2860.8 +j   2760.9     3975.7       0.7196

ELEMENT = "Transformer.T2"
5             1      4032.7 +j   4170.2     5801.1       0.6952
5             2      4032.7 +j   4170.2     5801.1       0.6952
5             3      4032.7 +j   4170.2     5801.1       0.6952
5             0         0.0 +j      0.0        0.0       1.0000
   TERMINAL TOTAL . 12098.2 +j  12510.5    17403.4       0.6952
6             1     -4020.1 +j  -3376.9     5250.2       0.7657
6             2     -4020.1 +j  -3376.9     5250.2       0.7657
6             3     -4020.1 +j  -3376.9     5250.2       0.7657
6             0         0.0 +j      0.0        0.0       1.0000
   TERMINAL TOTAL .-12060.4 +j -10130.6    15750.6       0.7657

ELEMENT = "Transformer.T3"
4             1       116.4 +j   -213.8      243.5      -0.4782
4             2       116.4 +j   -213.8      243.5      -0.4782
4             3       116.4 +j   -213.8      243.5      -0.4782
4             0         0.0 +j      0.0        0.0       1.0000
   TERMINAL TOTAL .   349.3 +j   -641.5      730.4      -0.4782
9             1      -116.4 +j    218.7      247.7      -0.4698
9             2      -116.4 +j    218.7      247.7      -0.4698
9             3      -116.4 +j    218.7      247.7      -0.4698
9             0         0.0 +j      0.0        0.0       1.0000
   TERMINAL TOTAL .  -349.2 +j    656.1      743.2      -0.4698

ELEMENT = "Transformer.T4"
4             1       141.5 +j   -576.1      593.2      -0.2385
4             2       141.5 +j   -576.1      593.2      -0.2385
4             3       141.5 +j   -576.1      593.2      -0.2385
4             0         0.0 +j      0.0        0.0       1.0000
   TERMINAL TOTAL .   424.5 +j  -1728.4     1779.7      -0.2385
7             1      -141.3 +j    587.2      604.0      -0.2339
7             2      -141.3 +j    587.2      604.0      -0.2339
7             3      -141.3 +j    587.2      604.0      -0.2339
7             0         0.0 +j      0.0        0.0       1.0000
   TERMINAL TOTAL .  -423.8 +j   1761.7     1812.0      -0.2339

ELEMENT = "Transformer.T5"
8             1        -0.0 +j      0.0        0.0      -0.0025
8             2        -0.0 +j     -0.0        0.0       0.8331
8             3         0.0 +j      0.0        0.0       1.0000
8             0         0.0 +j      0.0        0.0       1.0000
   TERMINAL TOTAL .    -0.0 +j      0.0        0.0      -0.8285
7             1         0.0 +j      0.0        0.0       0.0000
7             2         0.0 +j      0.0        0.0       0.0000
7             3         0.0 +j      0.0        0.0       0.0000
7             0         0.0 +j      0.0        0.0       1.0000
   TERMINAL TOTAL .     0.0 +j      0.0        0.0       0.0000

= = = = = = = = = = = = = = = = = = =  = = = = = = = = = = =  = =

Power Conversion Elements

  Bus     Phase     kW   +j  kvar         kVA         PF

ELEMENT = "Load.2"
2             1    45118.2 +j 24352.2    51270.7       0.8800
2             2    45118.2 +j 24352.2    51270.7       0.8800
2             3    45118.2 +j 24352.2    51270.7       0.8800
2             0       0.0 +j    0.0        0.0       1.0000
  TERMINAL TOTAL  .135354.6 +j  73056.7   153812.1       0.8800

ELEMENT = "Load.3"
3             1    25648.5 +j 13843.6    29146.0       0.8800
3             2    25648.5 +j 13843.6    29146.0       0.8800
3             3    25648.5 +j 13843.6    29146.0       0.8800
3             0       0.0 +j    0.0        0.0       1.0000
  TERMINAL TOTAL  . 76945.5 +j  41530.8    87438.0       0.8800

ELEMENT = "Load.4"
4             1    37184.1 +j 20069.9    42254.7       0.8800
4             2    37184.1 +j 20069.9    42254.7       0.8800
4             3    37184.1 +j 20069.9    42254.7       0.8800
4             0       0.0 +j    0.0        0.0       1.0000
  TERMINAL TOTAL  .111552.4 +j  60209.6   126764.1       0.8800

ELEMENT = "Load.5"
5             1    8813.1 +j 4756.8    10014.9       0.8800
5             2    8813.1 +j 4756.8    10014.9       0.8800
5             3    8813.1 +j 4756.8    10014.9       0.8800
5             0       0.0 +j    0.0        0.0       1.0000
  TERMINAL TOTAL  . 26439.2 +j  14270.4    30044.6       0.8800

ELEMENT = "Load.6"
6             1     653.2 +j  352.6      742.3       0.8800
6             2     653.2 +j  352.6      742.3       0.8800
6             3     653.2 +j  352.6      742.3       0.8800
6             0       0.0 +j    0.0        0.0       1.0000
  TERMINAL TOTAL  .  1959.7 +j   1057.8     2227.0       0.8800

ELEMENT = "Load.9"
9             1    1280.4 +j  691.1     1455.0       0.8800
9             2    1280.4 +j  691.1     1455.0       0.8800
9             3    1280.4 +j  691.1     1455.0       0.8800
9             0       0.0 +j    0.0        0.0       1.0000
  TERMINAL TOTAL  .  3841.2 +j   2073.2     4365.0       0.8800

ELEMENT = "Load.10"
10            1     419.1 +j  226.2      476.3       0.8800
10            2     419.1 +j  226.2      476.3       0.8800
10            3     419.1 +j  226.2      476.3       0.8800
10            0       0.0 +j    0.0        0.0       1.0000
  TERMINAL TOTAL  .  1257.4 +j    678.6     1428.8       0.8800

ELEMENT = "Load.11"
11            1     170.5 +j   92.0      193.7       0.8800
11            2     170.5 +j   92.0      193.7       0.8800
11            3     170.5 +j   92.0      193.7       0.8800
11            0       0.0 +j    0.0        0.0       1.0000
  TERMINAL TOTAL  .   511.4 +j    276.0      581.1       0.8800

ELEMENT = "Load.12"
12            1     293.9 +j  158.7      334.0       0.8800
12            2     293.9 +j  158.7      334.0       0.8800
12            3     293.9 +j  158.7      334.0       0.8800
12            0       0.0 +j    0.0        0.0       1.0000
  TERMINAL TOTAL  .   881.8 +j    476.0     1002.1       0.8800

ELEMENT = "Load.13"
13            1     669.2 +j  361.2      760.5       0.8800
13            2     669.2 +j  361.2      760.5       0.8800
13            3     669.2 +j  361.2      760.5       0.8800
13            0       0.0 +j    0.0        0.0       1.0000
  TERMINAL TOTAL  .  2007.7 +j   1083.6     2281.5       0.8800

ELEMENT = "Load.14"
14            1     627.1 +j  338.5      712.6       0.8800
14            2     627.1 +j  338.5      712.6       0.8800
14            3     627.1 +j  338.5      712.6       0.8800
14            0       0.0 +j    0.0        0.0       1.0000
  TERMINAL TOTAL  .  1881.2 +j   1015.4     2137.7       0.8800


Total Circuit Losses = 182069.2 +j 620147.8
